7
log_files/1-1-oso.log	Energy:  -98206.0952687
B         -2.02428       -0.00036        0.03897
B         -0.82981        0.89237       -0.26566
B          0.82884        0.89201       -0.26611
B          2.02371        0.00037        0.03878
B         -0.82914       -0.89230       -0.26498
B          0.82954       -0.89224       -0.26647
Li         0.00189        0.00024        1.64245
