7
log_files/2-1-3-oso.log	Energy:  -98197.5433820
Li         0.00000        0.00000        1.67079
B          0.00000        2.04310        0.12499
B         -0.00000       -2.04310        0.12499
B          1.01370        0.96310       -0.28181
B         -0.64420        0.61300       -0.34441
B         -1.01370       -0.96310       -0.28181
B          0.64420       -0.61300       -0.34441
