39
log_files/orca.out	Energy:    -812.9585222
C          4.08677        2.93126        0.50399
C          4.40335        1.82815       -0.16941
C          3.60337        0.59814       -0.14180
C          4.22765       -0.66189       -0.13002
C          3.45820       -1.79051       -0.03580
C          2.05774       -1.68133        0.02053
C          1.18389       -2.80463        0.11735
C         -0.15871       -2.63608        0.14403
C         -0.73778       -1.33261        0.06416
C         -2.12695       -1.11479        0.07018
C         -2.64541        0.15523       -0.01975
C         -4.13222        0.47184       -0.01043
C         -4.97699       -0.79867        0.06190
C         -4.44595        1.34186        1.21513
C         -4.49966        1.22890       -1.29389
C         -1.70781        1.20350       -0.11931
N         -0.40328        1.04022       -0.12697
C          0.09405       -0.21268       -0.03161
C          1.51880       -0.38788       -0.03765
N          2.28730        0.71355       -0.11251
H          3.23603        2.97466        1.17592
H          4.71197        3.81145        0.46543
H          5.32463        1.79601       -0.74046
H          5.30611       -0.72666       -0.17188
H          3.92201       -2.76831       -0.00520
H          1.61233       -3.79699        0.16979
H         -0.81496       -3.49323        0.22046
H         -2.77941       -1.97489        0.14502
H         -4.79297       -1.36922        0.97410
H         -6.03452       -0.53544        0.06140
H         -4.81130       -1.45490       -0.79456
H         -5.51197        1.56893        1.24953
H         -3.91661        2.29563        1.19515
H         -4.18387        0.83259        2.14318
H         -5.56883        1.44258       -1.30642
H         -3.98482        2.18670       -1.37772
H         -4.26747        0.64311       -2.18387
H         -2.05568        2.22684       -0.19680
Li         1.13300        2.26111       -0.32899
