81
log_files/protonate_1.log	Energy: -1632923.9987550
C          0.69983       -0.28526        0.19794
C         -0.69952       -0.28510        0.19800
C         -1.40681       -0.53557       -0.98189
C         -0.69730       -0.93409       -2.12658
C          0.69726       -0.93427       -2.12663
C          1.40696       -0.53590       -0.98202
C          2.90485       -0.24049       -1.07884
C          3.22822        1.11737       -0.47541
C          3.75527       -1.30252       -0.41694
C          4.50926       -1.04904        0.67046
C          5.30985       -2.08948        1.39806
C          5.28257       -3.45526        0.81370
C          4.55001       -3.72710       -0.36142
C          3.77902       -2.65324       -1.03961
C          4.04202        1.23734        0.60869
C          4.38783        2.55580        1.25525
C          3.83118        3.77001        0.60445
C          2.97044        3.65363       -0.50680
C          2.59268        2.32041       -1.02450
C          4.16348        5.03034        1.10546
C          3.65155        6.17821        0.49447
C          2.80265        6.06720       -0.61191
C          2.45735        4.80905       -1.10892
C          6.00503       -4.47704        1.43870
C          5.99910       -5.76359        0.89718
C          5.27466       -6.03337       -0.26978
C          4.55256       -5.01808       -0.89962
O          5.92793       -1.79613        2.40756
O          3.17915       -2.83350       -2.09696
O          5.09176        2.58982        2.24720
O          1.71920        2.21839       -1.91379
C         -2.90467       -0.23994       -1.07857
C         -3.75519       -1.30217       -0.41709
C         -3.22796        1.11770       -0.47463
C         -4.04172        1.23730        0.60953
C         -2.59244        2.32094       -1.02333
C         -2.97040        3.65399       -0.50532
C         -3.83110        3.76999        0.60600
C         -4.38757        2.55555        1.25652
C         -2.45748        4.80963       -1.10718
C         -2.80291        6.06761       -0.60984
C         -3.65177        6.17824        0.49661
C         -4.16352        5.03015        1.10735
C         -4.50909       -1.04907        0.67046
C         -3.77917       -2.65261       -1.04035
C         -4.55027       -3.72667       -0.36259
C         -5.28269       -3.45525        0.81272
C         -5.30978       -2.08971        1.39765
C         -4.55304       -5.01740       -0.90137
C         -5.27520       -6.03288       -0.27190
C         -5.99949       -5.76353        0.89524
C         -6.00521       -4.47722        1.43734
O          4.62743        0.19766        1.22718
O         -4.62708        0.19741        1.22772
O         -3.17961       -2.83243       -2.09795
O         -5.92770       -1.79674        2.40736
O         -1.71890        2.21929       -1.91259
O         -5.09138        2.58922        2.24856
H          3.15246       -0.22356       -2.14669
H         -3.15228       -0.22259       -2.14641
H          6.56443       -4.24681        2.33928
H          6.56091       -6.55520        1.38278
H          5.27444       -7.03470       -0.68877
H          3.98701       -5.20760       -1.80569
H         -3.98760       -5.20660       -1.80758
H         -5.27515       -7.03403       -0.69134
H         -6.56135       -6.55529        1.38056
H         -6.56450       -4.24732        2.33806
H         -1.80308        4.71170       -1.96616
H         -2.41412        6.96171       -1.08675
H         -3.91804        7.15744        0.88151
H          1.23363       -0.01926        1.10640
H         -1.23318       -0.01900        1.10651
H         -1.24543       -1.21770       -3.01955
H          1.24524       -1.21798       -3.01966
H          4.82215        5.09477        1.96512
H          3.91772        7.15754        0.87911
H         -4.82215        5.09428        1.96706
H          2.41373        6.96114       -1.08903
H          1.80295        4.71084       -1.96786
Li        -0.00002        1.66887       -2.29253
