%chk=example1.chk
# hf/3-21g geom=connectivity

Title Card Required

0 2
 C                 -7.53591610    0.42777041   -0.12209236
 H                 -8.30486881    1.04876425    0.28775953
 H                 -7.78260168   -0.52994325   -0.53054162
 H                 -6.52027901    0.76448865   -0.12349532
 Cl                -7.28940058   -0.30920470    1.45705221
 Br                -7.80343867    1.22755935   -1.83582181

 1 2 1.0 3 1.0 4 1.0 5 1.0 6 1.0
 2
 3
 4
 5
 6

