14
 energy: -23.203855001722 gnorm: 0.000548091844 xtb: 6.6.0 (conda-forge)
C           -1.66410016427524        0.77729233656809       -0.18382417800789
C           -1.16110448946558        0.66897642626556        1.10151462742085
C            0.08030800224943        0.09679731505672        1.31023622662352
C            0.82214564852750       -0.36807877501732        0.23610109180874
C            0.32149292562971       -0.26105164881805       -1.06455455177187
C           -0.92853323096513        0.31606720119768       -1.25860964654161
O            1.00345970082236       -0.69734836747553       -2.15086804404557
S            2.42634412812206       -1.11241914842923        0.46694083812816
H           -2.63260896812260        1.22236858661140       -0.35136290949347
H           -1.73021822663101        1.02767303320297        1.94500036792008
H            0.47505048199024        0.01102339211862        2.31272518451551
H           -1.29947551748354        0.38955045829006       -2.26828414431385
H            1.85296134695457       -1.07323461327524       -1.88550939100203
H            2.43417836264730       -0.99751619629583        1.79029452875958
