20
 energy: -32.783606809676 gnorm: 0.000454217302 xtb: 6.6.0 (conda-forge)
C            3.69775814355472       -0.09741379382813       -0.10248896967509
C            2.31088553936564        0.46357495471784       -0.35316248358482
O            2.11550295118962        1.50760169493708       -0.93178320760119
N            1.33183651790098       -0.34016648565374        0.15267645965251
C           -0.05861400627406       -0.17360767726340        0.11131696917072
C           -0.85333408945174       -1.17990235712324        0.65809516524258
C           -2.22835009800983       -1.07946780529996        0.64633274300881
C           -2.83904866022458        0.03695237822358        0.08395476151909
C           -2.04882861290255        1.04252042740966       -0.45830501758872
C           -0.67040254218415        0.94327197457957       -0.44679373930645
O           -4.19951836152245        0.10104781227999        0.08702978522700
H            3.77701133931050       -1.11135530845380       -0.48845012613204
H            3.90450460102534       -0.10986121148704        0.96600994261490
H            4.43040407621048        0.53358790371830       -0.59680434389960
H            1.63282396639984       -1.18994628756661        0.60986479252468
H           -0.38817221901440       -2.05149654093824        1.09743180862149
H           -2.84610437741370       -1.85638830779943        1.06702175658591
H           -2.51590669666810        1.91491887954697       -0.89565493988224
H           -0.06606839207114        1.72669821518807       -0.87108133114872
H           -4.48647907922047        0.91953153481244       -0.33521002534880
