6
H-N-IRC.log	Energy: -691637.6018829
O          0.61206        1.11658       -0.42655
Ce         1.54976       -0.63354       -0.08459
Ce        -1.54405        0.62780        0.07452
O         -0.32725       -1.22365        0.39313
H         -3.39096       -0.19795        1.11256
H         -1.92172        2.69327        0.81541
