76
 energy: -107.612795253052 gnorm: 0.000544263224 xtb: 6.6.0 (conda-forge)
C            8.46689528326537       -0.98860256158414       -0.75409438958899
C            7.58644229842006       -0.28019782222749        0.28156998620390
C            7.71135842517003        1.23837567651666        0.11761988760750
C            6.12231104054925       -0.67682592274347        0.21184318187202
C            5.56864851742472       -1.35442804797146       -0.86582686811398
C            4.22247692195241       -1.66832351491286       -0.88495096380662
C            3.38811787085828       -1.31456869726698        0.16741447229004
C            3.94180409891196       -0.64687315257588        1.24989221252217
C            5.28767883375990       -0.33259145325757        1.26953013245401
C            1.91203928944570       -1.64826510429749        0.09401071234561
C            1.23432309181056       -0.83468976632050       -1.02502391900040
C            1.51231536764775        0.66565013667084       -0.93558104623636
C            0.53282868619388        1.44121392419380       -1.82104578886977
N           -0.83567492490634        1.16795048612341       -1.43060775003665
C           -1.78650894619430        1.29088127539326       -2.52149560250766
C           -3.21817267352876        1.11270720041846       -1.99914697842729
C           -3.17217020574537        0.31103263472899       -0.69673713184093
C           -2.49673257235612        1.19484770842212        0.35483197206976
C           -1.29494925614309        1.91775922634761       -0.27875763735335
C           -4.57460309754677       -0.22135267326435       -0.29342552992263
C           -5.50621963888150        0.93984459797605        0.00046829613577
C           -6.30487355145522        1.47141609721280       -1.00250747707137
C           -7.13094315008445        2.55156317288866       -0.74539852071893
C           -7.16639666301707        3.11717703863665        0.51687087527095
C           -6.37907190004218        2.58704552245950        1.52502593622826
C           -5.55688372701947        1.50408613084127        1.27105308369703
C           -4.54843407848217       -1.19273557836858        0.88391927436467
C           -5.77563653832669       -1.55575888880226        1.43497970104536
C           -5.85150556730351       -2.48162016369775        2.45740428516905
C           -4.69778418210359       -3.07174278277974        2.94636908533518
C           -3.47712278800271       -2.73995564828411        2.38880441898774
C           -3.40185822032209       -1.81573947059567        1.35872685477673
O           -5.12086117727970       -0.93603590979780       -1.40457885221374
O            1.23615299054781       -1.48894059547472        1.31943595457747
C            8.09847314875680       -0.68610565407086        1.65918330955600
O            8.54016756192823        0.05673448997297        2.49342868846832
O            8.00887998339023       -2.00749273656851        1.85333050501668
H            8.34481411222609       -2.06665363161144       -0.68803317914755
H            9.51190003740296       -0.74525938990219       -0.57035289688476
H            8.21404333379641       -0.65440220246097       -1.75718324010983
H            7.33067155831916        1.53686736791641       -0.85621635132893
H            8.75267200032546        1.53903091987313        0.20170584129630
H            7.14629681175592        1.75474255756131        0.88864757317218
H            6.18109909000126       -1.64846091111312       -1.70295529228883
H            3.81546349586632       -2.20315390521283       -1.73106762319280
H            3.32418688070156       -0.38528238622267        2.09656542810542
H            5.69583378742447        0.18668330664382        2.12532321653909
H            1.80886700936193       -2.71653611439258       -0.13603106511626
H            0.15623049393582       -0.98732088967566       -0.95096254901989
H            1.56531486805228       -1.20628485668765       -1.99496838744241
H            1.41089558617034        1.00834775259760        0.09685440628707
H            2.53487120019747        0.88173107781832       -1.25049058093332
H            0.76772749718200        2.51906991827441       -1.78796649149313
H            0.66034167085713        1.10517986452429       -2.85334031006156
H           -1.54878113887429        0.50796219926558       -3.24889915191979
H           -1.69693489917321        2.26618284375741       -3.03315960182975
H           -3.68013652450287        2.08167870242292       -1.80365721772313
H           -3.82424597405887        0.59855135045154       -2.74439192689794
H           -2.53760626561216       -0.56105376239321       -0.88800031679015
H           -3.20426138285453        1.93703134626308        0.72430610705221
H           -2.17126300573077        0.59194544250596        1.20242783885109
H           -0.48473544364759        1.99664601595243        0.44704829680208
H           -1.57589773381691        2.94653429176739       -0.56643922715266
H           -6.28611565025484        1.02095503620024       -1.98155382930581
H           -7.74946860482061        2.95214248241417       -1.53553751748358
H           -7.80921435475635        3.96180896126267        0.71780432251602
H           -6.40764632904349        3.01568626035872        2.51646079863145
H           -4.96322779492354        1.08434375362925        2.07050807660024
H           -6.67677622186736       -1.10379715947419        1.04767981582729
H           -6.81354382200085       -2.74391560669152        2.87268018394521
H           -4.75202411866843       -3.79155314997837        3.74974259054600
H           -2.57065384876230       -3.20355713557229        2.74957721534125
H           -2.43168916458118       -1.59972603665241        0.94037026398769
H           -4.57402425188079       -1.71548609100125       -1.55233563879373
H            1.12508271339061       -0.54530651165335        1.48168527103032
H            8.33712383147736       -2.24141088473496        2.73582077813062
