16
 energy: -30.251064063931 gnorm: 0.000370105323 xtb: 6.6.0 (conda-forge)
C           -1.91356218001734       -0.69916550549698       -0.59982957675591
C           -2.20132887379484        0.58807031683977       -0.15950834564629
C           -1.19832874944164        1.39860971205153        0.32280584420084
C            0.12424026252449        0.95162166264964        0.38255363213348
C            0.42016945156816       -0.34963146109070       -0.06058149323768
C           -0.61759999689432       -1.15503345993472       -0.54791842757865
C            1.75931114144599       -0.95583891230911       -0.05600422217937
O            2.01237457333396       -2.07109291342609       -0.43610003038634
O            2.75335713515841       -0.15617958602479        0.42235642441260
O            1.03352747522072        1.81255554509249        0.86745462885404
H           -2.69922456936874       -1.33399790191882       -0.97808505546345
H           -3.21507387671962        0.95782840891663       -0.19473211811862
H           -1.40270079260595        2.39983556125669        0.66796068293319
H           -0.36072402518443       -2.14898340243339       -0.88138421378853
H            3.59263355669146       -0.64076964865729        0.38502732676130
H            1.91282946808371        1.40217158448518        0.86598494385939
