21
 energy: -39.004973859462 gnorm: 0.000831031057 xtb: 6.6.0 (conda-forge)
C           -3.14558150814773       -0.00816549026833       -0.02200967135050
N           -1.78833943276701       -0.47363044593086       -0.08629900853327
C           -1.35546602089157       -1.72651885805765       -0.27935274030083
N           -0.03934612017514       -1.83909926488974       -0.28956820323765
C            0.41074239633743       -0.58331906510686       -0.09117279702172
C           -0.66008016470006        0.30079788111741        0.04223652462211
C           -0.45993557747774        1.69359662013858        0.27040684740691
O           -1.30090198210115        2.57318679706342        0.40392402324537
N            0.89707768506825        1.98608977356586        0.33523749991519
C            1.98281721727148        1.14193280988232        0.20207702226581
O            3.12219414377963        1.57475993172095        0.28374478474673
N            1.71011746834287       -0.17968759423729       -0.01349458220867
C            2.79352557467496       -1.12995585123007       -0.17596839731118
H           -3.81767571113928       -0.85369748396569       -0.13918401752335
H           -3.32327831006980        0.48160746388702        0.93529719007947
H           -3.32367352128879        0.72291995649017       -0.81060432931236
H           -2.01215498818935       -2.56193334415021       -0.41372015550140
H            1.13725945038230        2.95900612411945        0.49802339383762
H            2.41868113555409       -2.11321270294931        0.09095312002372
H            3.61694418620391       -0.83167757812501        0.46968268916140
H            3.13687407933270       -1.13309967907415       -1.21010919300341
