7
log_files/4-1-5-oso.log	Energy:  -98169.1084186
Li         0.00000        0.00000       -2.32900
B          0.00000        0.00000       -0.25280
B         -0.00014        1.60295       -0.74352
B          0.00014       -1.60295       -0.74352
B         -0.00000        1.39235        0.81080
B          0.00000       -1.39235        0.81080
B         -0.00000       -0.00000        1.51565
