27
log_files/orca2.out	Energy:    -907.8685199
O         -3.87808       -2.09245        0.58613
C         -2.77032       -1.65024        0.69905
C         -2.37817       -0.30901        0.16828
C         -3.41319        0.61563        0.00550
C         -3.16381        1.94793       -0.27626
C         -1.85691        2.38790       -0.32808
C         -0.80984        1.47375       -0.19465
C         -1.05418        0.09385       -0.03264
C          0.06363       -0.86330       -0.13057
C         -0.14768       -2.17681       -0.51275
C          0.90641       -3.08890       -0.55619
C          2.19602       -2.71246       -0.24294
C          2.42933       -1.38626        0.06795
F          3.66574       -1.00570        0.30500
C          1.39762       -0.44120        0.10382
C          1.67520        0.96483        0.21123
O          2.75869        1.48165        0.44619
C          0.54122        1.95420       -0.08937
O          0.88187        3.12922       -0.15233
H         -1.99334       -2.18132        1.27467
H         -4.43169        0.27137        0.13334
H         -3.98275        2.64143       -0.40316
H         -1.63537        3.43818       -0.46201
H         -1.12421       -2.51163       -0.83065
H          0.70725       -4.11130       -0.84681
H          3.01704       -3.41573       -0.26682
Li         2.72430        3.35023        0.23502
