80
log_files/base_molecule.log	Energy: -1628351.4038897
C          0.69498       -0.42904       -0.01807
C         -0.69495       -0.42908       -0.01807
C         -1.40861       -0.11643       -1.18200
C         -0.69668        0.21619       -2.33364
C          0.69667        0.21622       -2.33364
C          1.40862       -0.11635       -1.18200
C          2.94195       -0.06885       -1.19304
C          3.41533        1.19421       -0.51233
C          3.56595       -1.25497       -0.49703
H          3.25681       -0.06011       -2.23829
C          4.08001       -1.15199        0.74592
C          4.63124       -2.31156        1.51335
C          4.63762       -3.62187        0.80591
C          4.15356       -3.73569       -0.50452
C          3.59957       -2.54860       -1.21845
C          3.91987        1.17063        0.73892
C          4.29887        2.39957        1.50192
C          4.12663        3.69439        0.78629
C          3.65893        3.73044       -0.53443
C          3.29905        2.47182       -1.24987
C          4.44775        4.88273        1.44671
C          4.30456        6.09910        0.79135
C          3.83837        6.13573       -0.52839
C          3.51799        4.95610       -1.18908
C          5.14550       -4.74514        1.46340
C          5.17246       -5.97314        0.81493
C          4.69047       -6.08707       -0.49472
C          4.18367       -4.97279       -1.15194
O          5.04624       -2.17072        2.64581
O          3.23126       -2.60834       -2.38016
O          4.70070        2.32612        2.64534
O          2.94319        2.47083       -2.41785
C         -2.94195       -0.06898       -1.19304
C         -3.56593       -1.25506       -0.49697
C         -3.41536        1.19412       -0.51243
H         -3.25680       -0.06031       -2.23830
C         -3.91992        1.17060        0.73883
C         -3.29912        2.47167       -1.25005
C         -3.65900        3.73034       -0.53468
C         -4.12671        3.69437        0.78604
C         -4.29895        2.39959        1.50175
C         -3.51805        4.95596       -1.18940
C         -3.83843        6.13563       -0.52878
C         -4.30463        6.09908        0.79095
C         -4.44783        4.88274        1.44639
C         -4.08000       -1.15202        0.74597
C         -3.59952       -2.54874       -1.21831
C         -4.15349       -3.73580       -0.50430
C         -4.63756       -3.62191        0.80611
C         -4.63122       -2.31155        1.51347
C         -4.18357       -4.97294       -1.15164
C         -4.69035       -6.08719       -0.49435
C         -5.17235       -5.97318        0.81529
C         -5.14543       -4.74514        1.46367
O          4.14102        0.02119        1.43256
O         -4.14104        0.02120        1.43253
O         -3.23118       -2.60855       -2.38000
O         -5.04623       -2.17064        2.64592
O         -2.94320        2.47062       -2.41801
O         -4.70076        2.32621        2.64517
H          5.51480       -4.63216        2.47606
H          5.56752       -6.84559        1.32475
H          4.71181       -7.04829       -0.99767
H          3.80420       -5.03767       -2.16502
H         -3.80408       -5.03788       -2.16471
H         -4.71167       -7.04844       -0.99724
H         -5.56740       -6.84561        1.32515
H         -5.51474       -4.63211        2.47632
H         -3.15499        4.96048       -2.21050
H         -3.72578        7.08772       -1.03693
H         -4.55319        7.02240        1.30366
H          1.22184       -0.66883        0.89883
H         -1.22180       -0.66890        0.89884
H         -1.23826        0.48279       -3.23456
H          1.23823        0.48284       -3.23457
H          4.80867        4.82921        2.46725
H          4.55311        7.02239        1.30411
H         -4.80876        4.82929        2.46692
H          3.72572        7.08785       -1.03648
H          3.15493        4.96068       -2.21018
